test file

new line...1

add other line

ssh key add

update ssh file
